dss/import/capas-pablo/Formato-interfaz/13n-balanc-para-hc-NoTerminado/LineCode.dss
New LineCode.alac25 nphases=3 r1=0.00131006 x1=0.000346644 r0=0.0014555 x0=0.00173971 c1=0.0106534 c0=0.00356164
New LineCode.alac50 nphases=3 r1=0.000663124 x1=0.000325502 r0=0.000808557 x0=0.00171857 c1=0.0113939 c0=0.00364045
New LineCode.alac70 nphases=3 r1=0.00048417 x1=0.000315326 r0=0.000629602 x0=0.0017084 c1=0.0117887 c0=0.00367967
New LineCode.alac95 nphases=3 r1=0.000352234 x1=0.000305055 r0=0.000497666 x0=0.00169813 c1=0.0122161 c0=0.00372013
